L6/1726524/Linhas.dss
! ==========================================================
! LINHAS — geradas de SSDMT
! Barras = PAC_1 / PAC_2 da BDGD (preservados)
! ==========================================================
New Line.246246312 Bus1=node_437546669.2 Bus2=node_437546459.2 LineCode=CND_902_1F Length=39.75 Units=m
New Line.244271650 Bus1=node_427668395.1.2.3 Bus2=node_427668396.1.2.3 LineCode=CND_78_3F Length=122.39 Units=m
New Line.244691158 Bus1=node_429650205.2 Bus2=node_429650206.2 LineCode=CND_907_1F Length=112.77 Units=m
New Line.2057659182 Bus1=node_2409073291.1.2.3 Bus2=node_2409071841.1.2.3 LineCode=CND_20_3F Length=16.31 Units=m
New Line.243742520 Bus1=node_424846528.1.2.3 Bus2=node_424846529.1.2.3 LineCode=CND_4_3F Length=32.97 Units=m
New Line.246036757 Bus1=node_436825238.1 Bus2=node_436825113.1 LineCode=CND_907_1F Length=135.06 Units=m
New Line.247752805 Bus1=node_434663195.1.2.3 Bus2=node_444787252.1.2.3 LineCode=CND_4_3F Length=74.69 Units=m
New Line.246422723 Bus1=node_438394384.3 Bus2=node_438394385.3 LineCode=CND_902_1F Length=48.60 Units=m
New Line.246247085 Bus1=node_437713710.1 Bus2=node_437713711.1 LineCode=CND_907_1F Length=171.29 Units=m
New Line.546505983 Bus1=node_438053442.2 Bus2=node_816555666.2 LineCode=CND_923_1F Length=1.72 Units=m
New Line.1003126728 Bus1=node_444949425.1.2.3 Bus2=node_424947402.1.2.3 LineCode=CND_4_3F Length=7.05 Units=m
New Line.247753360 Bus1=node_444788953.1.2.3 Bus2=node_444789632.1.2.3 LineCode=CND_28_3F Length=33.02 Units=m
New Line.244272716 Bus1=node_427922784.1.2.3 Bus2=node_424636363.1.2.3 LineCode=CND_31_3F Length=30.00 Units=m
New Line.317801720 Bus1=node_502365696.1.2.3 Bus2=node_502365825.1.2.3 LineCode=CND_281_3F Length=8.51 Units=m
New Line.243741281 Bus1=node_424635309.1.2.3 Bus2=node_424745842.1.2.3 LineCode=CND_13_3F Length=150.94 Units=m
New Line.243741406 Bus1=node_424746474.1.2.3 Bus2=node_424746475.1.2.3 LineCode=CND_50_3F Length=33.16 Units=m
New Line.243740474 Bus1=node_424634433.1.2.3 Bus2=node_424634318.1.2.3 LineCode=CND_50_3F Length=22.66 Units=m
New Line.244271623 Bus1=node_427668255.1.2.3 Bus2=node_427667820.1.2.3 LineCode=CND_4_3F Length=28.30 Units=m
New Line.2551961680 Bus1=node_438225393.1.2.3 Bus2=node_2914491186.1.2.3 LineCode=CND_51_3F Length=2.96 Units=m
New Line.243741333 Bus1=node_424746105.1.2.3 Bus2=node_424746106.1.2.3 LineCode=CND_50_3F Length=16.90 Units=m
New Line.244691577 Bus1=node_429651842.2 Bus2=node_429652317.2 LineCode=CND_907_1F Length=37.96 Units=m
New Line.1678464542 Bus1=node_1866237142.1.2.3 Bus2=node_2002318209.1.2.3 LineCode=CND_53_3F Length=112.36 Units=m
New Line.243878928 Bus1=node_425348205.1.2.3 Bus2=node_425348229.1.2.3 LineCode=CND_50_3F Length=33.55 Units=m
New Line.2527422654 Bus1=node_438566154.3 Bus2=node_2629160507.3 LineCode=CND_1030_1F Length=2.70 Units=m
New Line.246420063 Bus1=node_437882972.1.2.3 Bus2=node_437882973.1.2.3 LineCode=CND_11_3F Length=103.03 Units=m
New Line.244271635 Bus1=node_427668310.1.2.3 Bus2=node_427668321.1.2.3 LineCode=CND_20_3F Length=31.36 Units=m
New Line.246036431 Bus1=node_436647554.1.2.3 Bus2=node_436647369.1.2.3 LineCode=CND_19_3F Length=29.88 Units=m
New Line.244691279 Bus1=node_428147160.3 Bus2=node_429650823.3 LineCode=CND_907_1F Length=162.23 Units=m
New Line.246422251 Bus1=node_438392024.1.2.3 Bus2=node_438054757.1.2.3 LineCode=CND_19_3F Length=26.85 Units=m
New Line.246596859 Bus1=node_438954710.2 Bus2=node_438955905.2 LineCode=CND_907_1F Length=111.37 Units=m
New Line.243743577 Bus1=node_424950587.1.2.3 Bus2=node_424948477.1.2.3 LineCode=CND_50_3F Length=34.96 Units=m
New Line.2501714731 Bus1=node_1547089557.1.2.3 Bus2=node_2659429354.1.2.3 LineCode=CND_321_3F Length=96.83 Units=m
New Line.244272614 Bus1=node_427922275.1 Bus2=node_427922276.1 LineCode=CND_902_1F Length=35.08 Units=m
New Line.246423475 Bus1=node_438564669.1.2.3 Bus2=node_438564818.1.2.3 LineCode=CND_19_3F Length=24.08 Units=m
New Line.243743225 Bus1=node_424948822.1.2.3 Bus2=node_424948727.1.2.3 LineCode=CND_50_3F Length=18.15 Units=m
New Line.247752972 Bus1=node_444788266.1.2.3 Bus2=node_444788165.1.2.3 LineCode=CND_4_3F Length=51.73 Units=m
New Line.246422725 Bus1=node_438394190.2 Bus2=node_438394395.2 LineCode=CND_907_1F Length=66.83 Units=m
New Line.243740725 Bus1=node_424635703.1.2.3 Bus2=node_424635704.1.2.3 LineCode=CND_13_3F Length=19.52 Units=m
New Line.246247507 Bus1=node_437715820.1.2.3 Bus2=node_437715821.1.2.3 LineCode=CND_19_3F Length=19.60 Units=m
New Line.246420990 Bus1=node_438055077.2 Bus2=node_438055078.2 LineCode=CND_907_1F Length=168.07 Units=m
New Line.1113529796 Bus1=node_424746520.1.2.3 Bus2=100_1113528806.1.2.3 LineCode=CND_102_3F Length=3.17 Units=m
New Line.246245130 Bus1=node_437192945.2 Bus2=node_437192946.2 LineCode=CND_902_1F Length=57.77 Units=m
New Line.246423771 Bus1=node_438566124.2 Bus2=node_438567099.2 LineCode=CND_907_1F Length=379.32 Units=m
New Line.246596569 Bus1=node_438954454.2 Bus2=node_438954455.2 LineCode=CND_907_1F Length=60.38 Units=m
New Line.246247590 Bus1=node_437713711.1 Bus2=node_437716236.1 LineCode=CND_907_1F Length=94.98 Units=m
New Line.246422496 Bus1=node_438226893.3 Bus2=node_438393250.3 LineCode=CND_907_1F Length=108.41 Units=m
New Line.246243745 Bus1=node_436828129.1 Bus2=node_437009791.1 LineCode=CND_907_1F Length=89.13 Units=m
New Line.1055233369 Bus1=node_1265652685.1.2.3 Bus2=node_424745521.1.2.3 LineCode=CND_20_3F Length=37.75 Units=m
New Line.244272125 Bus1=node_427919826.1.2.3 Bus2=node_427919827.1.2.3 LineCode=CND_20_3F Length=34.56 Units=m
New Line.244462261 Bus1=node_428149134.3 Bus2=node_428149135.3 LineCode=CND_902_1F Length=73.47 Units=m
New Line.246423186 Bus1=node_438564173.1.2.3 Bus2=node_438394359.1.2.3 LineCode=CND_11_3F Length=180.93 Units=m
New Line.243879031 Bus1=node_425348490.1.2.3 Bus2=node_425348379.1.2.3 LineCode=CND_50_3F Length=38.74 Units=m
New Line.243742770 Bus1=node_424847776.1.2.3 Bus2=node_424847787.1.2.3 LineCode=CND_50_3F Length=22.67 Units=m
New Line.246596003 Bus1=node_438567584.2 Bus2=node_438784159.2 LineCode=CND_907_1F Length=102.48 Units=m
New Line.246422559 Bus1=node_438393564.2 Bus2=node_438393565.2 LineCode=CND_907_1F Length=113.98 Units=m
New Line.247752653 Bus1=node_437367040.1.2.3 Bus2=node_444786177.1.2.3 LineCode=CND_13_3F Length=99.88 Units=m
New Line.243743598 Bus1=node_424950688.1.2.3 Bus2=node_424950138.1.2.3 LineCode=CND_4_3F Length=28.93 Units=m
New Line.246421269 Bus1=node_438056476.1.2.3 Bus2=node_438056477.1.2.3 LineCode=CND_19_3F Length=29.91 Units=m
New Line.246247913 Bus1=node_437880883.1.2.3 Bus2=node_437881023.1.2.3 LineCode=CND_11_3F Length=119.57 Units=m
New Line.244692216 Bus1=node_429848747.2 Bus2=node_429848758.2 LineCode=CND_907_1F Length=106.85 Units=m
New Line.246419894 Bus1=node_437882127.1.2.3 Bus2=node_437882128.1.2.3 LineCode=CND_11_3F Length=232.30 Units=m
New Line.246419981 Bus1=node_437882562.1.2.3 Bus2=node_429651552.1.2.3 LineCode=CND_11_3F Length=107.35 Units=m
New Line.246247635 Bus1=node_437716460.1 Bus2=node_437716461.1 LineCode=CND_907_1F Length=151.76 Units=m
New Line.243741654 Bus1=node_424747714.1.2.3 Bus2=node_424747715.1.2.3 LineCode=CND_50_3F Length=28.96 Units=m
New Line.246596539 Bus1=node_437882243.1 Bus2=node_438954305.1 LineCode=CND_902_1F Length=59.84 Units=m
New Line.247753712 Bus1=node_444882134.1.2.3 Bus2=node_444881963.1.2.3 LineCode=CND_13_3F Length=157.25 Units=m
New Line.821107275 Bus1=node_1091139813.1.2.3 Bus2=node_1091139822.1.2.3 LineCode=CND_20_3F Length=35.14 Units=m
New Line.246246270 Bus1=node_437546459.2 Bus2=node_437546460.2 LineCode=CND_902_1F Length=38.09 Units=m
New Line.247754712 Bus1=node_444951597.1.2.3 Bus2=node_444951598.1.2.3 LineCode=CND_28_3F Length=31.95 Units=m
New Line.699484336 Bus1=node_971565169.1.2.3 Bus2=node_971565202.1.2.3 LineCode=CND_20_3F Length=36.04 Units=m
New Line.247752725 Bus1=node_444787027.1.2.3 Bus2=node_424635318.1.2.3 LineCode=CND_28_3F Length=22.77 Units=m
New Line.245612269 Bus1=node_434663386.1.2.3 Bus2=node_434664038.1.2.3 LineCode=CND_20_3F Length=27.82 Units=m
New Line.245823113 Bus1=node_434919528.1.2.3 Bus2=node_434919578.1.2.3 LineCode=CND_523_3F Length=31.45 Units=m
New Line.245612128 Bus1=node_434663320.1.2.3 Bus2=node_434663321.1.2.3 LineCode=CND_20_3F Length=25.76 Units=m
New Line.247754358 Bus1=node_444949823.1.2.3 Bus2=node_444949824.1.2.3 LineCode=CND_28_3F Length=26.87 Units=m
New Line.246596609 Bus1=node_438784399.1.2.3 Bus2=node_438785673.1.2.3 LineCode=CND_11_3F Length=110.89 Units=m
New Line.247752594 Bus1=node_444786377.1.2.3 Bus2=node_444786378.1.2.3 LineCode=CND_4_3F Length=29.01 Units=m
New Line.629119504 Bus1=node_897057278.1.2.3 Bus2=node_897057296.1.2.3 LineCode=CND_20_3F Length=40.49 Units=m
New Line.247752982 Bus1=node_444788321.1 Bus2=node_444787172.1 LineCode=CND_949_1F Length=66.90 Units=m
New Line.423107473 Bus1=node_694113479.1.2.3 Bus2=node_694113464.1.2.3 LineCode=CND_20_3F Length=21.78 Units=m
New Line.244461831 Bus1=node_428146976.1.2.3 Bus2=node_424633723.1.2.3 LineCode=CND_31_3F Length=30.15 Units=m
New Line.246246836 Bus1=node_437548875.1.2.3 Bus2=node_437546974.1.2.3 LineCode=CND_11_3F Length=391.30 Units=m
New Line.246596295 Bus1=node_438784414.2 Bus2=node_438785619.2 LineCode=CND_907_1F Length=122.82 Units=m
New Line.246246721 Bus1=node_437548714.1.2.3 Bus2=node_437548715.1.2.3 LineCode=CND_11_3F Length=74.78 Units=m
New Line.246247342 Bus1=node_437714991.1.2.3 Bus2=node_437714996.1.2.3 LineCode=CND_19_3F Length=32.36 Units=m
New Line.1665262872 Bus1=node_1986878914.1.2.3 Bus2=node_1988865026.1.2.3 LineCode=CND_20_3F Length=3.55 Units=m
New Line.1377498128 Bus1=node_1672251201.2 Bus2=node_1672251272.2 LineCode=CND_915_1F Length=3.52 Units=m
New Line.2548236098 Bus1=node_2783826350.1.2.3 Bus2=node_2783826537.1.2.3 LineCode=CND_10_3F Length=63.05 Units=m
New Line.243742803 Bus1=node_424847772.1.2.3 Bus2=node_424847952.1.2.3 LineCode=CND_10_3F Length=30.61 Units=m
New Line.246420587 Bus1=node_437715421.1.2.3 Bus2=node_438053063.1.2.3 LineCode=CND_19_3F Length=36.07 Units=m
New Line.247752586 Bus1=node_444786337.1.2.3 Bus2=node_424747174.1.2.3 LineCode=CND_4_3F Length=21.57 Units=m
New Line.2608596955 Bus1=node_437880852.2 Bus2=node_2762107992.2 LineCode=CND_1030_1F Length=3.93 Units=m
New Line.246243733 Bus1=node_429435136.1.2.3 Bus2=node_437009907.1.2.3 LineCode=CND_11_3F Length=100.61 Units=m
New Line.245823359 Bus1=node_434920815.1.2.3 Bus2=node_434920816.1.2.3 LineCode=CND_20_3F Length=32.98 Units=m
New Line.351116098 Bus1=100_350910543.1.2.3 Bus2=node_427922604.1.2.3 LineCode=CND_31_3F Length=29.87 Units=m
New Line.247754357 Bus1=node_444949809.1.2.3 Bus2=node_444879995.1.2.3 LineCode=CND_28_3F Length=30.93 Units=m
New Line.246245198 Bus1=node_437193285.2 Bus2=node_437193286.2 LineCode=CND_907_1F Length=116.81 Units=m
New Line.2699077872 Bus1=node_2879534285.1.2.3 Bus2=node_2879534295.1.2.3 LineCode=CND_20_3F Length=37.00 Units=m
New Line.247753466 Bus1=node_444880849.1.2.3 Bus2=node_444880934.1.2.3 LineCode=CND_28_3F Length=29.87 Units=m
New Line.246245549 Bus1=node_437366800.1.2.3 Bus2=node_437366801.1.2.3 LineCode=CND_11_3F Length=123.84 Units=m
New Line.1257016022 Bus1=node_427669281.1.2.3 Bus2=node_1556406543.1.2.3 LineCode=CND_20_3F Length=22.51 Units=m
New Line.246246680 Bus1=node_437548505.1.2.3 Bus2=node_437548510.1.2.3 LineCode=CND_11_3F Length=94.82 Units=m
New Line.1792539429 Bus1=node_2116985970.1.2.3 Bus2=node_2116985981.1.2.3 LineCode=CND_11_3F Length=163.78 Units=m
New Line.243743651 Bus1=node_424950952.1.2.3 Bus2=node_424950958.1.2.3 LineCode=CND_50_3F Length=13.16 Units=m
New Line.244691638 Bus1=node_429652625.2 Bus2=node_429652626.2 LineCode=CND_907_1F Length=83.58 Units=m
New Line.245612471 Bus1=node_434918393.1.2.3 Bus2=node_434918394.1.2.3 LineCode=CND_20_3F Length=26.10 Units=m
New Line.246421327 Bus1=node_436647925.1.2.3 Bus2=node_424948187.1.2.3 LineCode=CND_19_3F Length=40.26 Units=m
New Line.971676397 Bus1=node_1233846590.1.2.3 Bus2=node_1233846591.1.2.3 LineCode=CND_19_3F Length=1.65 Units=m
New Line.245612408 Bus1=node_434917983.1.2.3 Bus2=node_1496222842.1.2.3 LineCode=CND_20_3F Length=30.38 Units=m
New Line.246035303 Bus1=node_436362775.1.2.3 Bus2=node_436362794.1.2.3 LineCode=CND_51_3F Length=88.31 Units=m
New Line.244692590 Bus1=node_429848185.1 Bus2=node_429850628.1 LineCode=CND_907_1F Length=79.57 Units=m
New Line.246036977 Bus1=node_424634008.1.2.3 Bus2=node_436826339.1.2.3 LineCode=CND_19_3F Length=25.43 Units=m
New Line.246247531 Bus1=node_437715940.1.2.3 Bus2=node_437715941.1.2.3 LineCode=CND_19_3F Length=36.30 Units=m
New Line.246247601 Bus1=node_437713596.2 Bus2=node_437716240.2 LineCode=CND_907_1F Length=124.50 Units=m
New Line.245612394 Bus1=node_434918008.1.2.3 Bus2=node_434917963.1.2.3 LineCode=CND_20_3F Length=26.21 Units=m
New Line.246423681 Bus1=node_438566648.2 Bus2=node_438566649.2 LineCode=CND_907_1F Length=72.07 Units=m
New Line.246247214 Bus1=node_437714355.3 Bus2=node_437714356.3 LineCode=CND_907_1F Length=90.05 Units=m
New Line.1720946069 Bus1=node_2046981476.1.2.3 Bus2=node_2046981487.1.2.3 LineCode=CND_10_3F Length=34.53 Units=m
New Line.1598476404 Bus1=100_1598476428.1.2.3 Bus2=node_1918653789.1.2.3 LineCode=CND_11_3F Length=1.49 Units=m
New Line.243744055 Bus1=node_425077253.1.2.3 Bus2=node_425077508.1.2.3 LineCode=CND_50_3F Length=8.93 Units=m
New Line.246421052 Bus1=node_438055313.1.2.3 Bus2=node_438054942.1.2.3 LineCode=CND_19_3F Length=28.54 Units=m
New Line.246597844 Bus1=node_439144977.1.2.3 Bus2=node_438564523.1.2.3 LineCode=CND_11_3F Length=126.66 Units=m
New Line.245823092 Bus1=node_434919472.1.2.3 Bus2=node_434919467.1.2.3 LineCode=CND_77_3F Length=27.80 Units=m
New Line.243741519 Bus1=node_424746980.1.2.3 Bus2=node_424746704.1.2.3 LineCode=CND_50_3F Length=28.16 Units=m
New Line.243741475 Bus1=node_424746475.1.2.3 Bus2=node_424746820.1.2.3 LineCode=CND_50_3F Length=41.27 Units=m
New Line.244271607 Bus1=node_427668180.1.2.3 Bus2=node_427668181.1.2.3 LineCode=CND_20_3F Length=36.14 Units=m
New Line.243741449 Bus1=node_424746316.1.2.3 Bus2=node_424746690.1.2.3 LineCode=CND_13_3F Length=207.88 Units=m
New Line.246423531 Bus1=node_438565758.1 Bus2=node_438565899.1 LineCode=CND_907_1F Length=104.54 Units=m
New Line.245823288 Bus1=node_434920177.1.2.3 Bus2=node_434920457.1.2.3 LineCode=CND_20_3F Length=42.42 Units=m
New Line.246036411 Bus1=node_429650386.1 Bus2=node_436647309.1 LineCode=CND_907_1F Length=114.79 Units=m
New Line.246423578 Bus1=node_438566019.1.2.3 Bus2=node_438566134.1.2.3 LineCode=CND_11_3F Length=312.54 Units=m
New Line.246599124 Bus1=node_439147097.1 Bus2=node_439482514.1 LineCode=CND_902_1F Length=78.89 Units=m
New Line.243743572 Bus1=node_424950562.1.2.3 Bus2=node_424948537.1.2.3 LineCode=CND_50_3F Length=27.84 Units=m
New Line.244461840 Bus1=node_428146877.1.2.3 Bus2=node_428146946.1.2.3 LineCode=CND_31_3F Length=27.90 Units=m
New Line.246423632 Bus1=node_438566403.1.2.3 Bus2=node_438565103.1.2.3 LineCode=CND_11_3F Length=169.53 Units=m
New Line.243743203 Bus1=node_424948588.1.2.3 Bus2=node_424948718.1.2.3 LineCode=CND_4_3F Length=33.35 Units=m
New Line.245823423 Bus1=node_434921045.1.2.3 Bus2=node_434921114.1.2.3 LineCode=CND_20_3F Length=14.79 Units=m
New Line.245612144 Bus1=node_434663400.1.2.3 Bus2=node_434663320.1.2.3 LineCode=CND_20_3F Length=31.51 Units=m
New Line.246421714 Bus1=node_436827654.1.2.3 Bus2=node_438226168.1.2.3 LineCode=CND_19_3F Length=27.40 Units=m
New Line.246595982 Bus1=node_437884502.1 Bus2=node_438784054.1 LineCode=CND_902_1F Length=58.49 Units=m
New Line.243742862 Bus1=node_424848250.1.2.3 Bus2=node_424847631.1.2.3 LineCode=CND_50_3F Length=21.77 Units=m
New Line.246420444 Bus1=node_437884881.1.2.3 Bus2=node_437884882.1.2.3 LineCode=CND_11_3F Length=77.08 Units=m
New Line.628770785 Bus1=node_896635554.1.2.3 Bus2=node_896635553.1.2.3 LineCode=CND_20_3F Length=28.87 Units=m
New Line.244692847 Bus1=node_430032264.1.2.3 Bus2=node_430032265.1.2.3 LineCode=CND_11_3F Length=145.95 Units=m
New Line.243743389 Bus1=node_424949298.1.2.3 Bus2=node_424949648.1.2.3 LineCode=CND_50_3F Length=16.90 Units=m
New Line.1539205998 Bus1=node_429650210.1.2.3 Bus2=node_1858241823.1.2.3 LineCode=CND_11_3F Length=4.36 Units=m
New Line.1862668546 Bus1=node_2183748166.1.2.3 Bus2=node_2183748195.1.2.3 LineCode=CND_11_3F Length=91.95 Units=m
New Line.2636744691 Bus1=node_2795602488.1.2.3 Bus2=node_2795602495.1.2.3 LineCode=CND_20_3F Length=23.35 Units=m
New Line.246034973 Bus1=node_436361138.2 Bus2=node_436361139.2 LineCode=CND_926_1F Length=39.52 Units=m
New Line.245823289 Bus1=node_434920457.1.2.3 Bus2=node_434920462.1.2.3 LineCode=CND_20_3F Length=36.16 Units=m
New Line.246247968 Bus1=node_437881297.1 Bus2=node_437881298.1 LineCode=CND_907_1F Length=97.51 Units=m
New Line.245612371 Bus1=node_434664128.1.2.3 Bus2=node_434664132.1.2.3 LineCode=CND_20_3F Length=51.16 Units=m
New Line.247752933 Bus1=node_444786933.1.2.3 Bus2=node_444788081.1.2.3 LineCode=CND_28_3F Length=44.32 Units=m
New Line.243744040 Bus1=node_424948473.1.2.3 Bus2=node_425077433.1.2.3 LineCode=CND_4_3F Length=22.04 Units=m
New Line.246247591 Bus1=node_437716240.2 Bus2=node_437716241.2 LineCode=CND_907_1F Length=116.31 Units=m
New Line.247754639 Bus1=node_444951232.1.2.3 Bus2=node_444950618.1.2.3 LineCode=CND_4_3F Length=36.19 Units=m
New Line.246422771 Bus1=node_438394619.2 Bus2=node_438394625.2 LineCode=CND_902_1F Length=74.40 Units=m
New Line.622403998 Bus1=node_897057847.1.2.3 Bus2=node_890655332.1.2.3 LineCode=CND_20_3F Length=22.07 Units=m
New Line.246037314 Bus1=node_436828023.1 Bus2=node_436828024.1 LineCode=CND_907_1F Length=75.27 Units=m
New Line.246037354 Bus1=node_436827539.1 Bus2=node_436828224.1 LineCode=CND_907_1F Length=100.16 Units=m
New Line.246247988 Bus1=node_437881397.2 Bus2=node_3003876499.2 LineCode=CND_907_1F Length=57.84 Units=m
New Line.246036956 Bus1=node_436826233.1.2.3 Bus2=node_436826234.1.2.3 LineCode=CND_11_3F Length=105.10 Units=m
New Line.246244494 Bus1=node_437189765.1.2.3 Bus2=node_437189750.1.2.3 LineCode=CND_19_3F Length=33.07 Units=m
New Line.246035146 Bus1=node_436362011.1.2.3 Bus2=node_436362012.1.2.3 LineCode=CND_51_3F Length=92.70 Units=m
New Line.246421411 Bus1=node_438224652.1.2.3 Bus2=node_436825053.1.2.3 LineCode=CND_11_3F Length=137.70 Units=m
New Line.246422598 Bus1=node_438393750.2 Bus2=node_438393760.2 LineCode=CND_907_1F Length=139.60 Units=m
New Line.244692600 Bus1=node_429850618.1.2.3 Bus2=node_429850678.1.2.3 LineCode=CND_11_3F Length=418.95 Units=m
New Line.246422106 Bus1=node_438224938.2 Bus2=node_438228128.2 LineCode=CND_907_1F Length=122.69 Units=m
New Line.246421138 Bus1=node_438055821.1.2.3 Bus2=node_438055822.1.2.3 LineCode=CND_11_3F Length=144.60 Units=m
New Line.246598956 Bus1=node_439327865.2 Bus2=node_439331368.2 LineCode=CND_907_1F Length=128.55 Units=m
New Line.246247123 Bus1=node_437713895.2 Bus2=node_437713901.2 LineCode=CND_907_1F Length=132.71 Units=m
New Line.246246317 Bus1=node_437546565.1.2.3 Bus2=node_437546684.1.2.3 LineCode=CND_11_3F Length=90.76 Units=m
New Line.246244880 Bus1=node_437191695.1.2.3 Bus2=node_437191696.1.2.3 LineCode=CND_19_3F Length=21.34 Units=m
New Line.243879164 Bus1=node_425348920.1.2.3 Bus2=node_425348339.1.2.3 LineCode=CND_13_3F Length=94.39 Units=m
New Line.243879577 Bus1=node_425350270.1.2.3 Bus2=node_425350264.1.2.3 LineCode=CND_50_3F Length=43.87 Units=m
New Line.243743029 Bus1=node_424846674.1.2.3 Bus2=node_424846678.1.2.3 LineCode=CND_4_3F Length=22.68 Units=m
New Line.243743352 Bus1=node_424949462.1.2.3 Bus2=node_424947478.1.2.3 LineCode=CND_4_3F Length=25.34 Units=m
New Line.243743504 Bus1=node_424950217.1.2.3 Bus2=node_424947207.1.2.3 LineCode=CND_20_3F Length=28.88 Units=m
New Line.246247821 Bus1=node_437716246.2 Bus2=node_437717391.2 LineCode=CND_907_1F Length=119.97 Units=m
New Line.243741141 Bus1=node_424637787.1.2.3 Bus2=node_424637788.1.2.3 LineCode=CND_50_3F Length=30.84 Units=m
New Line.246421864 Bus1=node_436647635.3 Bus2=node_438226918.3 LineCode=CND_902_1F Length=72.16 Units=m
New Line.245612228 Bus1=node_434663759.1.2.3 Bus2=node_434663829.1.2.3 LineCode=CND_77_3F Length=36.44 Units=m
New Line.243743509 Bus1=node_424950243.1.2.3 Bus2=node_424950013.1.2.3 LineCode=CND_4_3F Length=9.77 Units=m
New Line.243740529 Bus1=node_424634723.1.2.3 Bus2=node_424634718.1.2.3 LineCode=CND_50_3F Length=33.47 Units=m
New Line.246246277 Bus1=node_437193241.1 Bus2=node_437190170.1 LineCode=CND_907_1F Length=97.84 Units=m
New Line.246247952 Bus1=node_437713756.2 Bus2=node_437716520.2 LineCode=CND_907_1F Length=170.34 Units=m
New Line.246037098 Bus1=node_436826943.2 Bus2=node_436826944.2 LineCode=CND_907_1F Length=350.07 Units=m
New Line.246035149 Bus1=node_436362026.1.2.3 Bus2=node_436362027.1.2.3 LineCode=CND_51_3F Length=91.33 Units=m
New Line.243743506 Bus1=node_424950227.1.2.3 Bus2=node_424950233.1.2.3 LineCode=CND_4_3F Length=33.33 Units=m
New Line.913162055 Bus1=node_1173850868.1 Bus2=node_1173850852.1 LineCode=CND_907_1F Length=109.16 Units=m
New Line.317801734 Bus1=100_483323523.1.2.3 Bus2=100_507898799.1.2.3 LineCode=CND_102_3F Length=11.79 Units=m
New Line.244691074 Bus1=node_429649781.1 Bus2=node_429649782.1 LineCode=CND_907_1F Length=84.32 Units=m
New Line.1486395174 Bus1=node_1751649629.1.2.3 Bus2=node_1751649640.1.2.3 LineCode=CND_10_3F Length=39.22 Units=m
New Line.243742635 Bus1=node_424847111.1.2.3 Bus2=node_424847112.1.2.3 LineCode=CND_50_3F Length=26.26 Units=m
New Line.246247612 Bus1=node_437716321.1 Bus2=node_437716346.1 LineCode=CND_907_1F Length=91.31 Units=m
New Line.2584151923 Bus1=node_2736765227.1.2.3 Bus2=node_2736765237.1.2.3 LineCode=CND_20_3F Length=31.14 Units=m
New Line.247752856 Bus1=node_444787686.1.2.3 Bus2=node_444787565.1.2.3 LineCode=CND_28_3F Length=32.90 Units=m
New Line.247753236 Bus1=node_444789606.1.2.3 Bus2=node_444789037.1.2.3 LineCode=CND_28_3F Length=29.92 Units=m
New Line.244461771 Bus1=node_428146676.1.2.3 Bus2=node_428146677.1.2.3 LineCode=CND_31_3F Length=14.99 Units=m
New Line.246420517 Bus1=node_437715401.1.2.3 Bus2=node_437715935.1.2.3 LineCode=CND_19_3F Length=38.12 Units=m
...
